Version 4
SHEET 1 880 1392
WIRE -144 32 -144 -16
WIRE -96 32 -144 32
WIRE -16 32 -96 32
WIRE -96 64 -96 32
WIRE -16 64 -16 32
WIRE -1488 144 -1696 144
WIRE -96 160 -96 128
WIRE -16 160 -16 128
WIRE -16 160 -96 160
WIRE -2208 176 -2208 96
WIRE -2048 176 -2048 96
WIRE -1488 176 -1488 144
WIRE -1248 176 -1488 176
WIRE -1072 176 -1168 176
WIRE -928 176 -1072 176
WIRE -704 176 -864 176
WIRE -480 176 -704 176
WIRE -448 176 -480 176
WIRE -96 192 -96 160
WIRE -1696 208 -1696 144
WIRE -704 208 -704 176
WIRE -144 224 -144 32
WIRE -448 240 -448 176
WIRE -176 240 -448 240
WIRE -1488 256 -1488 176
WIRE -1072 256 -1072 176
WIRE -176 272 -272 272
WIRE 96 320 0 320
WIRE -2208 336 -2208 256
WIRE -2048 336 -2048 256
WIRE -1696 336 -1696 288
WIRE -1696 336 -1808 336
WIRE -704 336 -704 288
WIRE -704 336 -816 336
WIRE -272 368 -272 352
WIRE -176 368 -272 368
WIRE -1696 384 -1696 336
WIRE -1072 384 -1072 336
WIRE -704 384 -704 336
WIRE -176 400 -448 400
WIRE -64 416 -64 384
WIRE -144 464 -144 416
WIRE -1488 496 -1488 336
WIRE -1248 496 -1488 496
WIRE -1072 496 -1168 496
WIRE -928 496 -1072 496
WIRE -704 496 -704 464
WIRE -704 496 -864 496
WIRE -480 496 -704 496
WIRE -448 496 -448 400
WIRE -448 496 -480 496
WIRE -1696 528 -1696 464
WIRE -1488 528 -1488 496
WIRE -1488 528 -1696 528
WIRE -1072 560 -1072 496
WIRE -1072 688 -1072 640
FLAG -96 192 0
FLAG -2208 336 0
FLAG -144 -16 VCC
FLAG -2208 96 VCC
FLAG -1808 336 0
FLAG 96 320 DIFF_OUT
IOPIN 96 320 Out
FLAG -2048 96 VOFF
FLAG -2048 336 0
FLAG -816 336 VOFF
FLAG -64 416 VOFF
FLAG -480 176 IN+
FLAG -480 496 IN-
FLAG -1072 384 0
FLAG -144 464 0
FLAG -1072 688 0
SYMBOL res -1152 160 R90
WINDOW 0 0 56 VBottom 2
WINDOW 3 32 56 VTop 2
SYMATTR InstName R2
SYMATTR Value 59
SYMBOL res -1152 480 R90
WINDOW 0 0 56 VBottom 2
WINDOW 3 32 56 VTop 2
SYMATTR InstName R3
SYMATTR Value 59
SYMBOL res -1088 240 R0
SYMATTR InstName R4
SYMATTR Value 1Meg
SYMBOL polcap -928 192 R270
WINDOW 0 32 32 VTop 2
WINDOW 3 0 32 VBottom 2
SYMATTR InstName C1
SYMATTR Value 10µ
SYMBOL polcap -928 512 R270
WINDOW 0 32 32 VTop 2
WINDOW 3 0 32 VBottom 2
SYMATTR InstName C2
SYMATTR Value 10µ
SYMBOL res -288 256 R0
SYMATTR InstName Rg
SYMATTR Value 1Meg
SYMBOL voltage -2208 160 R0
SYMATTR InstName Vcc
SYMATTR Value 5V
SYMBOL polcap -112 64 R0
SYMATTR InstName C3
SYMATTR Value 1µ
SYMBOL polcap -32 64 R0
SYMATTR InstName C4
SYMATTR Value 100n
SYMBOL voltage -1696 192 R0
SYMATTR InstName V1
SYMATTR Value 1
SYMBOL voltage -1696 368 R0
SYMATTR InstName V2
SYMATTR Value 1
SYMBOL res -720 192 R0
SYMATTR InstName R1
SYMATTR Value 10k
SYMBOL res -720 368 R0
SYMATTR InstName R5
SYMATTR Value 10k
SYMBOL voltage -2048 160 R0
SYMATTR InstName V_Off
SYMATTR Value 2.5V
SYMBOL res -1504 240 R0
SYMATTR InstName R6
SYMATTR Value 1k
SYMBOL res -1088 544 R0
SYMATTR InstName R7
SYMATTR Value 1Meg
SYMBOL OpAmps/AD8421 -144 320 R0
SYMATTR InstName U2
TEXT -1448 -56 Left 2 !.tran .1 10
TEXT -2256 -400 Left 2 ;This circuit may be used to obtain the results of electrical activity presented on the LOAD resister.\nThe intention is to sample the OUTPUT and perform ADC operations. The output analogue signal is restricted \nto be between 0V and 5V with respect to ground.
TEXT -2256 -480 Left 5 ;HEART SIMULATOR SHIELD
TEXT -2256 -280 Left 3 ;DESIGN
TEXT -2256 -224 Left 2 ;Module 1 - Input signal connected to 1KOhm resistor (LOAD)\nModule 2 - Differential Amplifier to provide high impedance from LOAD\nModule 3 - Diminishing signal to 5V peak-to-peak\nModule 4 - Adding 2.5V DC Offset from true ground\nModule 5 - Interface with ADC
TEXT -2256 -56 Left 3 ;IMPLEMENTATION
TEXT -2256 8 Left 2 ;Power
TEXT -1736 -56 Left 2 ;Simulation Params
TEXT -1744 80 Left 2 ;Module 1
TEXT -1312 80 Left 2 ;Module 2
